&jules_output
    dump_period = 1
    nprofiles = 1
    output_dir = '../output/test'
    run_id = 'test'
/

&jules_output_profile
    file_period = 0
    nvars = 2
    output_main_run = .true.
    output_period = 86400
    output_spinup = .false.
    output_type = 'M', 'M', 'M', 'M', 'M', 'M', 'M'
    profile_name = 'daily'
    var = 'smcl', 'precip'
    var_name = '', ''
/
