&jules_time
    l_360 = .false.
    l_leap = .true.
    main_run_end = '2017-01-01 00:00:00'
    main_run_start = '2016-01-01 00:00:00'
    print_step = 480
    timestep_len = 1800
/

&jules_spinup
    max_spinup_cycles = 1
    nvars = 2
    spinup_end = '2016-01-01 00:00:00'
    spinup_start = '2012-01-01 00:00:00'
    terminate_on_spinup_fail = .false.
    tolerance = -1.0, -0.1
    use_percent = .false., .false.
    var = 'smcl', 't_soil'
/
