&jules_soil_biogeochem
    const_ch4_cs = 7.41e-12
    const_ch4_npp = 0.00999
    const_ch4_resps = 0.00436
    kaps = 5e-09
    l_layeredc = .false.
    l_q10 = .true.
    l_soil_resp_lev2 = .false.
    q10_ch4_cs = 3.7
    q10_ch4_npp = 1.5
    q10_ch4_resps = 1.5
    q10_soil = 2.0
    soil_bgc_model = 1
    t0_ch4 = 273.15
/
